<routes>
        <vType id="typeWE" accel="0.8" decel="4.5" sigma="0.5" length="5" minGap="2.5" maxSpeed="16.67" guiShape="passenger"/>
        <vType id="typeEW" accel="0.7" decel="6" sigma="0.5" length="4" minGap="2.5" maxSpeed="17.67" guiShape="passenger"/>
        <vType id="typeSN" accel="0.73" decel="4.4" sigma="0.48" length="4.5" minGap="2.3" maxSpeed="15.9" guiShape="bus"/>
        <vType id="typeNS" accel="0.8" decel="4.5" sigma="0.5" length="7" minGap="3" maxSpeed="25" guiShape="bus"/>
        <route id="up" edges="53o 3i 4o 54i" />
        <route id="right" edges="51o 1i 2o 52i" />
        <route id="left" edges="52o 2i 1o 51i" />
        <route id="down" edges="54o 4i 3o 53i" />
    <vehicle id="left_0" type="typeEW" route="left" depart="0" />
    <vehicle id="up_1" type="typeSN" route="up" depart="1" color="1,0,0"/>
    <vehicle id="left_2" type="typeEW" route="left" depart="2" />
    <vehicle id="right_3" type="typeWE" route="right" depart="3" />
    <vehicle id="up_4" type="typeSN" route="up" depart="4" color="1,0,0"/>
    <vehicle id="down_5" type="typeNS" route="down" depart="6" color="1,0,0"/>
    <vehicle id="up_6" type="typeSN" route="up" depart="6" color="1,0,0"/>
    <vehicle id="left_7" type="typeEW" route="left" depart="10" />
    <vehicle id="right_8" type="typeWE" route="right" depart="11" />
    <vehicle id="down_9" type="typeNS" route="down" depart="11" color="1,0,0"/>
    <vehicle id="right_10" type="typeWE" route="right" depart="14" />
    <vehicle id="up_11" type="typeSN" route="up" depart="16" color="1,0,0"/>
    <vehicle id="right_12" type="typeWE" route="right" depart="22" />
    <vehicle id="left_13" type="typeEW" route="left" depart="22" />
    <vehicle id="down_14" type="typeNS" route="down" depart="22" color="1,0,0"/>
    <vehicle id="down_15" type="typeNS" route="down" depart="23" color="1,0,0"/>
    <vehicle id="right_16" type="typeWE" route="right" depart="25" />
    <vehicle id="right_17" type="typeWE" route="right" depart="31" />
    <vehicle id="down_18" type="typeNS" route="down" depart="31" color="1,0,0"/>
    <vehicle id="up_19" type="typeSN" route="up" depart="32" color="1,0,0"/>
    <vehicle id="down_20" type="typeNS" route="down" depart="33" color="1,0,0"/>
    <vehicle id="right_21" type="typeWE" route="right" depart="34" />
    <vehicle id="right_22" type="typeWE" route="right" depart="40" />
    <vehicle id="left_23" type="typeEW" route="left" depart="41" />
    <vehicle id="left_24" type="typeEW" route="left" depart="42" />
    <vehicle id="right_25" type="typeWE" route="right" depart="44" />
    <vehicle id="up_26" type="typeSN" route="up" depart="45" color="1,0,0"/>
    <vehicle id="right_27" type="typeWE" route="right" depart="47" />
    <vehicle id="left_28" type="typeEW" route="left" depart="49" />
    <vehicle id="up_29" type="typeSN" route="up" depart="51" color="1,0,0"/>
    <vehicle id="right_30" type="typeWE" route="right" depart="56" />
    <vehicle id="right_31" type="typeWE" route="right" depart="57" />
    <vehicle id="down_32" type="typeNS" route="down" depart="57" color="1,0,0"/>
    <vehicle id="up_33" type="typeSN" route="up" depart="58" color="1,0,0"/>
    <vehicle id="right_34" type="typeWE" route="right" depart="63" />
    <vehicle id="right_35" type="typeWE" route="right" depart="64" />
    <vehicle id="left_36" type="typeEW" route="left" depart="67" />
    <vehicle id="up_37" type="typeSN" route="up" depart="68" color="1,0,0"/>
    <vehicle id="right_38" type="typeWE" route="right" depart="69" />
    <vehicle id="up_39" type="typeSN" route="up" depart="71" color="1,0,0"/>
    <vehicle id="down_40" type="typeNS" route="down" depart="72" color="1,0,0"/>
    <vehicle id="left_41" type="typeEW" route="left" depart="74" />
    <vehicle id="down_42" type="typeNS" route="down" depart="74" color="1,0,0"/>
    <vehicle id="right_43" type="typeWE" route="right" depart="76" />
    <vehicle id="left_44" type="typeEW" route="left" depart="76" />
    <vehicle id="left_45" type="typeEW" route="left" depart="78" />
    <vehicle id="right_46" type="typeWE" route="right" depart="81" />
    <vehicle id="left_47" type="typeEW" route="left" depart="83" />
    <vehicle id="down_48" type="typeNS" route="down" depart="85" color="1,0,0"/>
    <vehicle id="left_49" type="typeEW" route="left" depart="88" />
    <vehicle id="down_50" type="typeNS" route="down" depart="89" color="1,0,0"/>
    <vehicle id="right_51" type="typeWE" route="right" depart="92" />
    <vehicle id="up_52" type="typeSN" route="up" depart="93" color="1,0,0"/>
    <vehicle id="down_53" type="typeNS" route="down" depart="98" color="1,0,0"/>
    <vehicle id="down_54" type="typeNS" route="down" depart="101" color="1,0,0"/>
    <vehicle id="up_55" type="typeSN" route="up" depart="103" color="1,0,0"/>
    <vehicle id="up_56" type="typeSN" route="up" depart="104" color="1,0,0"/>
    <vehicle id="up_57" type="typeSN" route="up" depart="106" color="1,0,0"/>
    <vehicle id="down_58" type="typeNS" route="down" depart="107" color="1,0,0"/>
    <vehicle id="right_59" type="typeWE" route="right" depart="108" />
    <vehicle id="up_60" type="typeSN" route="up" depart="108" color="1,0,0"/>
    <vehicle id="right_61" type="typeWE" route="right" depart="115" />
    <vehicle id="left_62" type="typeEW" route="left" depart="116" />
    <vehicle id="left_63" type="typeEW" route="left" depart="117" />
    <vehicle id="left_64" type="typeEW" route="left" depart="120" />
    <vehicle id="left_65" type="typeEW" route="left" depart="123" />
    <vehicle id="left_66" type="typeEW" route="left" depart="124" />
    <vehicle id="left_67" type="typeEW" route="left" depart="125" />
    <vehicle id="right_68" type="typeWE" route="right" depart="126" />
    <vehicle id="right_69" type="typeWE" route="right" depart="127" />
    <vehicle id="left_70" type="typeEW" route="left" depart="129" />
    <vehicle id="down_71" type="typeNS" route="down" depart="129" color="1,0,0"/>
    <vehicle id="right_72" type="typeWE" route="right" depart="132" />
    <vehicle id="left_73" type="typeEW" route="left" depart="132" />
    <vehicle id="right_74" type="typeWE" route="right" depart="134" />
    <vehicle id="up_75" type="typeSN" route="up" depart="134" color="1,0,0"/>
    <vehicle id="down_76" type="typeNS" route="down" depart="135" color="1,0,0"/>
    <vehicle id="up_77" type="typeSN" route="up" depart="135" color="1,0,0"/>
    <vehicle id="left_78" type="typeEW" route="left" depart="137" />
    <vehicle id="right_79" type="typeWE" route="right" depart="138" />
    <vehicle id="right_80" type="typeWE" route="right" depart="139" />
    <vehicle id="down_81" type="typeNS" route="down" depart="141" color="1,0,0"/>
    <vehicle id="up_82" type="typeSN" route="up" depart="145" color="1,0,0"/>
    <vehicle id="left_83" type="typeEW" route="left" depart="147" />
    <vehicle id="down_84" type="typeNS" route="down" depart="149" color="1,0,0"/>
    <vehicle id="right_85" type="typeWE" route="right" depart="150" />
    <vehicle id="right_86" type="typeWE" route="right" depart="152" />
    <vehicle id="left_87" type="typeEW" route="left" depart="155" />
    <vehicle id="up_88" type="typeSN" route="up" depart="155" color="1,0,0"/>
    <vehicle id="left_89" type="typeEW" route="left" depart="158" />
    <vehicle id="right_90" type="typeWE" route="right" depart="159" />
    <vehicle id="left_91" type="typeEW" route="left" depart="159" />
    <vehicle id="up_92" type="typeSN" route="up" depart="162" color="1,0,0"/>
    <vehicle id="right_93" type="typeWE" route="right" depart="164" />
    <vehicle id="down_94" type="typeNS" route="down" depart="164" color="1,0,0"/>
    <vehicle id="up_95" type="typeSN" route="up" depart="165" color="1,0,0"/>
    <vehicle id="left_96" type="typeEW" route="left" depart="170" />
    <vehicle id="up_97" type="typeSN" route="up" depart="170" color="1,0,0"/>
    <vehicle id="right_98" type="typeWE" route="right" depart="171" />
    <vehicle id="up_99" type="typeSN" route="up" depart="175" color="1,0,0"/>
    <vehicle id="right_100" type="typeWE" route="right" depart="176" />
    <vehicle id="left_101" type="typeEW" route="left" depart="177" />
    <vehicle id="up_102" type="typeSN" route="up" depart="178" color="1,0,0"/>
    <vehicle id="right_103" type="typeWE" route="right" depart="179" />
    <vehicle id="right_104" type="typeWE" route="right" depart="180" />
    <vehicle id="right_105" type="typeWE" route="right" depart="182" />
    <vehicle id="left_106" type="typeEW" route="left" depart="184" />
    <vehicle id="right_107" type="typeWE" route="right" depart="192" />
    <vehicle id="right_108" type="typeWE" route="right" depart="193" />
    <vehicle id="up_109" type="typeSN" route="up" depart="193" color="1,0,0"/>
    <vehicle id="up_110" type="typeSN" route="up" depart="194" color="1,0,0"/>
    <vehicle id="left_111" type="typeEW" route="left" depart="201" />
    <vehicle id="right_112" type="typeWE" route="right" depart="203" />
    <vehicle id="left_113" type="typeEW" route="left" depart="204" />
    <vehicle id="down_114" type="typeNS" route="down" depart="206" color="1,0,0"/>
    <vehicle id="left_115" type="typeEW" route="left" depart="209" />
    <vehicle id="up_116" type="typeSN" route="up" depart="212" color="1,0,0"/>
    <vehicle id="right_117" type="typeWE" route="right" depart="213" />
    <vehicle id="down_118" type="typeNS" route="down" depart="214" color="1,0,0"/>
    <vehicle id="right_119" type="typeWE" route="right" depart="216" />
    <vehicle id="right_120" type="typeWE" route="right" depart="217" />
    <vehicle id="right_121" type="typeWE" route="right" depart="218" />
    <vehicle id="left_122" type="typeEW" route="left" depart="218" />
    <vehicle id="down_123" type="typeNS" route="down" depart="220" color="1,0,0"/>
    <vehicle id="right_124" type="typeWE" route="right" depart="227" />
    <vehicle id="left_125" type="typeEW" route="left" depart="232" />
    <vehicle id="right_126" type="typeWE" route="right" depart="233" />
    <vehicle id="left_127" type="typeEW" route="left" depart="233" />
    <vehicle id="left_128" type="typeEW" route="left" depart="236" />
    <vehicle id="right_129" type="typeWE" route="right" depart="239" />
    <vehicle id="right_130" type="typeWE" route="right" depart="241" />
    <vehicle id="down_131" type="typeNS" route="down" depart="241" color="1,0,0"/>
    <vehicle id="up_132" type="typeSN" route="up" depart="242" color="1,0,0"/>
    <vehicle id="right_133" type="typeWE" route="right" depart="244" />
    <vehicle id="right_134" type="typeWE" route="right" depart="245" />
    <vehicle id="left_135" type="typeEW" route="left" depart="247" />
    <vehicle id="up_136" type="typeSN" route="up" depart="247" color="1,0,0"/>
    <vehicle id="up_137" type="typeSN" route="up" depart="248" color="1,0,0"/>
    <vehicle id="right_138" type="typeWE" route="right" depart="250" />
    <vehicle id="up_139" type="typeSN" route="up" depart="251" color="1,0,0"/>
    <vehicle id="left_140" type="typeEW" route="left" depart="253" />
    <vehicle id="right_141" type="typeWE" route="right" depart="254" />
    <vehicle id="down_142" type="typeNS" route="down" depart="254" color="1,0,0"/>
    <vehicle id="right_143" type="typeWE" route="right" depart="256" />
    <vehicle id="down_144" type="typeNS" route="down" depart="256" color="1,0,0"/>
    <vehicle id="right_145" type="typeWE" route="right" depart="257" />
    <vehicle id="left_146" type="typeEW" route="left" depart="257" />
    <vehicle id="left_147" type="typeEW" route="left" depart="258" />
    <vehicle id="down_148" type="typeNS" route="down" depart="258" color="1,0,0"/>
    <vehicle id="up_149" type="typeSN" route="up" depart="259" color="1,0,0"/>
    <vehicle id="down_150" type="typeNS" route="down" depart="261" color="1,0,0"/>
    <vehicle id="left_151" type="typeEW" route="left" depart="262" />
    <vehicle id="up_152" type="typeSN" route="up" depart="263" color="1,0,0"/>
    <vehicle id="left_153" type="typeEW" route="left" depart="265" />
    <vehicle id="down_154" type="typeNS" route="down" depart="265" color="1,0,0"/>
    <vehicle id="right_155" type="typeWE" route="right" depart="266" />
    <vehicle id="left_156" type="typeEW" route="left" depart="268" />
    <vehicle id="left_157" type="typeEW" route="left" depart="271" />
    <vehicle id="left_158" type="typeEW" route="left" depart="272" />
    <vehicle id="up_159" type="typeSN" route="up" depart="272" color="1,0,0"/>
    <vehicle id="left_160" type="typeEW" route="left" depart="273" />
    <vehicle id="down_161" type="typeNS" route="down" depart="273" color="1,0,0"/>
    <vehicle id="left_162" type="typeEW" route="left" depart="275" />
    <vehicle id="down_163" type="typeNS" route="down" depart="278" color="1,0,0"/>
    <vehicle id="left_164" type="typeEW" route="left" depart="281" />
    <vehicle id="left_165" type="typeEW" route="left" depart="283" />
    <vehicle id="left_166" type="typeEW" route="left" depart="284" />
    <vehicle id="up_167" type="typeSN" route="up" depart="284" color="1,0,0"/>
    <vehicle id="right_168" type="typeWE" route="right" depart="287" />
    <vehicle id="left_169" type="typeEW" route="left" depart="287" />
    <vehicle id="up_170" type="typeSN" route="up" depart="289" color="1,0,0"/>
    <vehicle id="left_171" type="typeEW" route="left" depart="291" />
    <vehicle id="right_172" type="typeWE" route="right" depart="292" />
    <vehicle id="down_173" type="typeNS" route="down" depart="293" color="1,0,0"/>
    <vehicle id="right_174" type="typeWE" route="right" depart="294" />
    <vehicle id="down_175" type="typeNS" route="down" depart="295" color="1,0,0"/>
    <vehicle id="right_176" type="typeWE" route="right" depart="296" />
    <vehicle id="left_177" type="typeEW" route="left" depart="296" />
    <vehicle id="right_178" type="typeWE" route="right" depart="298" />
    <vehicle id="left_179" type="typeEW" route="left" depart="298" />
    <vehicle id="up_180" type="typeSN" route="up" depart="299" color="1,0,0"/>
    <vehicle id="right_181" type="typeWE" route="right" depart="302" />
    <vehicle id="right_182" type="typeWE" route="right" depart="309" />
    <vehicle id="right_183" type="typeWE" route="right" depart="310" />
    <vehicle id="right_184" type="typeWE" route="right" depart="311" />
    <vehicle id="down_185" type="typeNS" route="down" depart="311" color="1,0,0"/>
    <vehicle id="right_186" type="typeWE" route="right" depart="315" />
    <vehicle id="left_187" type="typeEW" route="left" depart="315" />
    <vehicle id="down_188" type="typeNS" route="down" depart="315" color="1,0,0"/>
    <vehicle id="right_189" type="typeWE" route="right" depart="318" />
    <vehicle id="right_190" type="typeWE" route="right" depart="320" />
    <vehicle id="left_191" type="typeEW" route="left" depart="320" />
    <vehicle id="right_192" type="typeWE" route="right" depart="329" />
    <vehicle id="down_193" type="typeNS" route="down" depart="329" color="1,0,0"/>
    <vehicle id="down_194" type="typeNS" route="down" depart="330" color="1,0,0"/>
    <vehicle id="left_195" type="typeEW" route="left" depart="331" />
    <vehicle id="right_196" type="typeWE" route="right" depart="340" />
    <vehicle id="left_197" type="typeEW" route="left" depart="343" />
    <vehicle id="down_198" type="typeNS" route="down" depart="343" color="1,0,0"/>
    <vehicle id="up_199" type="typeSN" route="up" depart="344" color="1,0,0"/>
    <vehicle id="right_200" type="typeWE" route="right" depart="346" />
    <vehicle id="right_201" type="typeWE" route="right" depart="347" />
    <vehicle id="up_202" type="typeSN" route="up" depart="347" color="1,0,0"/>
    <vehicle id="right_203" type="typeWE" route="right" depart="348" />
    <vehicle id="left_204" type="typeEW" route="left" depart="350" />
    <vehicle id="left_205" type="typeEW" route="left" depart="351" />
    <vehicle id="right_206" type="typeWE" route="right" depart="352" />
    <vehicle id="left_207" type="typeEW" route="left" depart="354" />
    <vehicle id="up_208" type="typeSN" route="up" depart="354" color="1,0,0"/>
    <vehicle id="left_209" type="typeEW" route="left" depart="357" />
    <vehicle id="left_210" type="typeEW" route="left" depart="359" />
    <vehicle id="right_211" type="typeWE" route="right" depart="360" />
    <vehicle id="down_212" type="typeNS" route="down" depart="361" color="1,0,0"/>
    <vehicle id="down_213" type="typeNS" route="down" depart="362" color="1,0,0"/>
    <vehicle id="right_214" type="typeWE" route="right" depart="363" />
    <vehicle id="right_215" type="typeWE" route="right" depart="366" />
    <vehicle id="left_216" type="typeEW" route="left" depart="369" />
    <vehicle id="down_217" type="typeNS" route="down" depart="370" color="1,0,0"/>
    <vehicle id="left_218" type="typeEW" route="left" depart="372" />
    <vehicle id="right_219" type="typeWE" route="right" depart="374" />
    <vehicle id="left_220" type="typeEW" route="left" depart="376" />
    <vehicle id="down_221" type="typeNS" route="down" depart="376" color="1,0,0"/>
    <vehicle id="left_222" type="typeEW" route="left" depart="380" />
    <vehicle id="left_223" type="typeEW" route="left" depart="383" />
    <vehicle id="down_224" type="typeNS" route="down" depart="384" color="1,0,0"/>
    <vehicle id="up_225" type="typeSN" route="up" depart="385" color="1,0,0"/>
    <vehicle id="right_226" type="typeWE" route="right" depart="388" />
    <vehicle id="right_227" type="typeWE" route="right" depart="389" />
    <vehicle id="down_228" type="typeNS" route="down" depart="390" color="1,0,0"/>
    <vehicle id="left_229" type="typeEW" route="left" depart="392" />
    <vehicle id="down_230" type="typeNS" route="down" depart="395" color="1,0,0"/>
    <vehicle id="up_231" type="typeSN" route="up" depart="395" color="1,0,0"/>
    <vehicle id="right_232" type="typeWE" route="right" depart="396" />
    <vehicle id="left_233" type="typeEW" route="left" depart="396" />
    <vehicle id="left_234" type="typeEW" route="left" depart="400" />
    <vehicle id="right_235" type="typeWE" route="right" depart="402" />
    <vehicle id="left_236" type="typeEW" route="left" depart="402" />
    <vehicle id="right_237" type="typeWE" route="right" depart="406" />
    <vehicle id="left_238" type="typeEW" route="left" depart="406" />
    <vehicle id="down_239" type="typeNS" route="down" depart="410" color="1,0,0"/>
    <vehicle id="right_240" type="typeWE" route="right" depart="412" />
    <vehicle id="left_241" type="typeEW" route="left" depart="414" />
    <vehicle id="up_242" type="typeSN" route="up" depart="415" color="1,0,0"/>
    <vehicle id="up_243" type="typeSN" route="up" depart="419" color="1,0,0"/>
    <vehicle id="left_244" type="typeEW" route="left" depart="421" />
    <vehicle id="right_245" type="typeWE" route="right" depart="423" />
    <vehicle id="up_246" type="typeSN" route="up" depart="423" color="1,0,0"/>
    <vehicle id="right_247" type="typeWE" route="right" depart="424" />
    <vehicle id="right_248" type="typeWE" route="right" depart="426" />
    <vehicle id="left_249" type="typeEW" route="left" depart="430" />
    <vehicle id="left_250" type="typeEW" route="left" depart="433" />
    <vehicle id="up_251" type="typeSN" route="up" depart="433" color="1,0,0"/>
    <vehicle id="left_252" type="typeEW" route="left" depart="434" />
    <vehicle id="down_253" type="typeNS" route="down" depart="434" color="1,0,0"/>
    <vehicle id="right_254" type="typeWE" route="right" depart="435" />
    <vehicle id="up_255" type="typeSN" route="up" depart="436" color="1,0,0"/>
    <vehicle id="right_256" type="typeWE" route="right" depart="437" />
    <vehicle id="left_257" type="typeEW" route="left" depart="444" />
    <vehicle id="down_258" type="typeNS" route="down" depart="450" color="1,0,0"/>
    <vehicle id="left_259" type="typeEW" route="left" depart="451" />
    <vehicle id="up_260" type="typeSN" route="up" depart="451" color="1,0,0"/>
    <vehicle id="up_261" type="typeSN" route="up" depart="454" color="1,0,0"/>
    <vehicle id="right_262" type="typeWE" route="right" depart="459" />
    <vehicle id="down_263" type="typeNS" route="down" depart="459" color="1,0,0"/>
    <vehicle id="right_264" type="typeWE" route="right" depart="462" />
    <vehicle id="left_265" type="typeEW" route="left" depart="462" />
    <vehicle id="right_266" type="typeWE" route="right" depart="463" />
    <vehicle id="down_267" type="typeNS" route="down" depart="465" color="1,0,0"/>
    <vehicle id="right_268" type="typeWE" route="right" depart="466" />
    <vehicle id="left_269" type="typeEW" route="left" depart="466" />
    <vehicle id="down_270" type="typeNS" route="down" depart="468" color="1,0,0"/>
    <vehicle id="left_271" type="typeEW" route="left" depart="469" />
    <vehicle id="left_272" type="typeEW" route="left" depart="471" />
    <vehicle id="up_273" type="typeSN" route="up" depart="475" color="1,0,0"/>
    <vehicle id="down_274" type="typeNS" route="down" depart="476" color="1,0,0"/>
    <vehicle id="right_275" type="typeWE" route="right" depart="477" />
    <vehicle id="right_276" type="typeWE" route="right" depart="478" />
    <vehicle id="up_277" type="typeSN" route="up" depart="478" color="1,0,0"/>
    <vehicle id="down_278" type="typeNS" route="down" depart="479" color="1,0,0"/>
    <vehicle id="right_279" type="typeWE" route="right" depart="481" />
    <vehicle id="right_280" type="typeWE" route="right" depart="483" />
    <vehicle id="down_281" type="typeNS" route="down" depart="483" color="1,0,0"/>
    <vehicle id="left_282" type="typeEW" route="left" depart="484" />
    <vehicle id="up_283" type="typeSN" route="up" depart="484" color="1,0,0"/>
    <vehicle id="right_284" type="typeWE" route="right" depart="489" />
    <vehicle id="left_285" type="typeEW" route="left" depart="490" />
    <vehicle id="down_286" type="typeNS" route="down" depart="490" color="1,0,0"/>
    <vehicle id="left_287" type="typeEW" route="left" depart="493" />
    <vehicle id="down_288" type="typeNS" route="down" depart="494" color="1,0,0"/>
    <vehicle id="right_289" type="typeWE" route="right" depart="495" />
    <vehicle id="left_290" type="typeEW" route="left" depart="495" />
    <vehicle id="right_291" type="typeWE" route="right" depart="496" />
    <vehicle id="down_292" type="typeNS" route="down" depart="497" color="1,0,0"/>
    <vehicle id="right_293" type="typeWE" route="right" depart="500" />
    <vehicle id="right_294" type="typeWE" route="right" depart="501" />
    <vehicle id="left_295" type="typeEW" route="left" depart="504" />
    <vehicle id="left_296" type="typeEW" route="left" depart="507" />
    <vehicle id="up_297" type="typeSN" route="up" depart="508" color="1,0,0"/>
    <vehicle id="down_298" type="typeNS" route="down" depart="512" color="1,0,0"/>
    <vehicle id="left_299" type="typeEW" route="left" depart="513" />
    <vehicle id="right_300" type="typeWE" route="right" depart="517" />
    <vehicle id="left_301" type="typeEW" route="left" depart="519" />
    <vehicle id="right_302" type="typeWE" route="right" depart="524" />
    <vehicle id="down_303" type="typeNS" route="down" depart="525" color="1,0,0"/>
    <vehicle id="up_304" type="typeSN" route="up" depart="525" color="1,0,0"/>
    <vehicle id="right_305" type="typeWE" route="right" depart="528" />
    <vehicle id="right_306" type="typeWE" route="right" depart="530" />
    <vehicle id="down_307" type="typeNS" route="down" depart="530" color="1,0,0"/>
    <vehicle id="down_308" type="typeNS" route="down" depart="531" color="1,0,0"/>
    <vehicle id="up_309" type="typeSN" route="up" depart="532" color="1,0,0"/>
    <vehicle id="right_310" type="typeWE" route="right" depart="533" />
    <vehicle id="left_311" type="typeEW" route="left" depart="533" />
    <vehicle id="left_312" type="typeEW" route="left" depart="537" />
    <vehicle id="right_313" type="typeWE" route="right" depart="538" />
    <vehicle id="left_314" type="typeEW" route="left" depart="538" />
    <vehicle id="right_315" type="typeWE" route="right" depart="540" />
    <vehicle id="down_316" type="typeNS" route="down" depart="540" color="1,0,0"/>
    <vehicle id="up_317" type="typeSN" route="up" depart="541" color="1,0,0"/>
    <vehicle id="right_318" type="typeWE" route="right" depart="542" />
    <vehicle id="right_319" type="typeWE" route="right" depart="543" />
    <vehicle id="right_320" type="typeWE" route="right" depart="545" />
    <vehicle id="left_321" type="typeEW" route="left" depart="545" />
    <vehicle id="right_322" type="typeWE" route="right" depart="547" />
    <vehicle id="left_323" type="typeEW" route="left" depart="548" />
    <vehicle id="left_324" type="typeEW" route="left" depart="550" />
    <vehicle id="down_325" type="typeNS" route="down" depart="552" color="1,0,0"/>
    <vehicle id="down_326" type="typeNS" route="down" depart="553" color="1,0,0"/>
    <vehicle id="right_327" type="typeWE" route="right" depart="555" />
    <vehicle id="left_328" type="typeEW" route="left" depart="555" />
    <vehicle id="left_329" type="typeEW" route="left" depart="556" />
    <vehicle id="down_330" type="typeNS" route="down" depart="557" color="1,0,0"/>
    <vehicle id="right_331" type="typeWE" route="right" depart="558" />
    <vehicle id="down_332" type="typeNS" route="down" depart="559" color="1,0,0"/>
    <vehicle id="left_333" type="typeEW" route="left" depart="561" />
    <vehicle id="right_334" type="typeWE" route="right" depart="562" />
    <vehicle id="right_335" type="typeWE" route="right" depart="563" />
    <vehicle id="down_336" type="typeNS" route="down" depart="564" color="1,0,0"/>
    <vehicle id="left_337" type="typeEW" route="left" depart="567" />
    <vehicle id="right_338" type="typeWE" route="right" depart="571" />
    <vehicle id="left_339" type="typeEW" route="left" depart="576" />
    <vehicle id="down_340" type="typeNS" route="down" depart="579" color="1,0,0"/>
    <vehicle id="up_341" type="typeSN" route="up" depart="580" color="1,0,0"/>
    <vehicle id="down_342" type="typeNS" route="down" depart="582" color="1,0,0"/>
    <vehicle id="down_343" type="typeNS" route="down" depart="585" color="1,0,0"/>
    <vehicle id="up_344" type="typeSN" route="up" depart="585" color="1,0,0"/>
    <vehicle id="right_345" type="typeWE" route="right" depart="587" />
    <vehicle id="up_346" type="typeSN" route="up" depart="589" color="1,0,0"/>
    <vehicle id="right_347" type="typeWE" route="right" depart="593" />
    <vehicle id="up_348" type="typeSN" route="up" depart="593" color="1,0,0"/>
    <vehicle id="right_349" type="typeWE" route="right" depart="596" />
    <vehicle id="left_350" type="typeEW" route="left" depart="596" />
    <vehicle id="right_351" type="typeWE" route="right" depart="601" />
    <vehicle id="left_352" type="typeEW" route="left" depart="601" />
    <vehicle id="right_353" type="typeWE" route="right" depart="602" />
    <vehicle id="right_354" type="typeWE" route="right" depart="603" />
    <vehicle id="left_355" type="typeEW" route="left" depart="605" />
    <vehicle id="right_356" type="typeWE" route="right" depart="606" />
    <vehicle id="down_357" type="typeNS" route="down" depart="606" color="1,0,0"/>
    <vehicle id="right_358" type="typeWE" route="right" depart="609" />
    <vehicle id="left_359" type="typeEW" route="left" depart="609" />
    <vehicle id="up_360" type="typeSN" route="up" depart="611" color="1,0,0"/>
    <vehicle id="right_361" type="typeWE" route="right" depart="612" />
    <vehicle id="left_362" type="typeEW" route="left" depart="613" />
    <vehicle id="left_363" type="typeEW" route="left" depart="614" />
    <vehicle id="down_364" type="typeNS" route="down" depart="619" color="1,0,0"/>
    <vehicle id="left_365" type="typeEW" route="left" depart="622" />
    <vehicle id="left_366" type="typeEW" route="left" depart="627" />
    <vehicle id="right_367" type="typeWE" route="right" depart="629" />
    <vehicle id="up_368" type="typeSN" route="up" depart="630" color="1,0,0"/>
    <vehicle id="right_369" type="typeWE" route="right" depart="634" />
    <vehicle id="left_370" type="typeEW" route="left" depart="634" />
    <vehicle id="right_371" type="typeWE" route="right" depart="635" />
    <vehicle id="up_372" type="typeSN" route="up" depart="635" color="1,0,0"/>
    <vehicle id="left_373" type="typeEW" route="left" depart="637" />
    <vehicle id="right_374" type="typeWE" route="right" depart="639" />
    <vehicle id="up_375" type="typeSN" route="up" depart="640" color="1,0,0"/>
    <vehicle id="left_376" type="typeEW" route="left" depart="641" />
    <vehicle id="right_377" type="typeWE" route="right" depart="642" />
    <vehicle id="left_378" type="typeEW" route="left" depart="643" />
    <vehicle id="down_379" type="typeNS" route="down" depart="643" color="1,0,0"/>
    <vehicle id="left_380" type="typeEW" route="left" depart="644" />
    <vehicle id="right_381" type="typeWE" route="right" depart="645" />
    <vehicle id="left_382" type="typeEW" route="left" depart="646" />
    <vehicle id="up_383" type="typeSN" route="up" depart="646" color="1,0,0"/>
    <vehicle id="right_384" type="typeWE" route="right" depart="648" />
    <vehicle id="right_385" type="typeWE" route="right" depart="649" />
    <vehicle id="left_386" type="typeEW" route="left" depart="649" />
    <vehicle id="left_387" type="typeEW" route="left" depart="651" />
    <vehicle id="down_388" type="typeNS" route="down" depart="654" color="1,0,0"/>
    <vehicle id="left_389" type="typeEW" route="left" depart="657" />
    <vehicle id="left_390" type="typeEW" route="left" depart="659" />
    <vehicle id="down_391" type="typeNS" route="down" depart="659" color="1,0,0"/>
    <vehicle id="right_392" type="typeWE" route="right" depart="660" />
    <vehicle id="left_393" type="typeEW" route="left" depart="660" />
    <vehicle id="right_394" type="typeWE" route="right" depart="662" />